title                           = checkers

SIMULATION_TYPE                 = 1
NOISE_TOMOGRAPHY                = 0
SAVE_FORWARD                    = .false.


NPROC                           = 1              
partitioning_method             = 3              
ngnod                           = 9


NSTEP                           = 4800
DT                              = 0.06
time_stepping_scheme            = 1
AXISYM                          = .false.
P_SV                            = .false.


GPU_MODE                        = .false.
setup_with_binary_database      = 0

MODEL                           = default
SAVE_MODEL                      = default

ATTENUATION_VISCOELASTIC        = .false.        
ATTENUATION_VISCOACOUSTIC       = .false.        
ATTENUATION_PORO_FLUID_PART     = .false.        
Q0                              = 1              
freq0                           = 10             


N_SLS                           = 3              
f0_attenuation                  = 5.196          
READ_VELOCITIES_AT_f0           = .false.        





UNDO_ATTENUATION                = .false.
NT_DUMP_ATTENUATION             = 500


NSOURCES                        = 1              
force_normal_to_surface         = .false.        


initialfield                    = .false.
add_Bielak_conditions_bottom    = .false.        
add_Bielak_conditions_right     = .false.
add_Bielak_conditions_top       = .false.
add_Bielak_conditions_left      = .false.


ACOUSTIC_FORCING                = .false.        









seismotype                      = 1              


subsamp_seismos                 = 1


USE_TRICK_FOR_BETTER_PRESSURE   = .false.


USER_T0                         = 0.0d0


save_ASCII_seismograms          = .false.
save_binary_seismograms_single  = .true.         
save_binary_seismograms_double  = .false.        
SU_FORMAT                       = .true.        


use_existing_STATIONS           = .false.


nreceiversets                   = 2


anglerec                        = 0.d0           
rec_normal_to_surface           = .false.        


nrec                            = 11             
xdeb                            = 300.           
zdeb                            = 2200.          
xfin                            = 3700.          
zfin                            = 2200.          
record_at_surface_same_vertical = .true.         


nrec                            = 11             
xdeb                            = 2500.          
zdeb                            = 2500.          
xfin                            = 2500.          
zfin                            = 0.             
record_at_surface_same_vertical = .false.        


save_ASCII_kernels              = .false.



PML_BOUNDARY_CONDITIONS         = .false.
NELEM_PML_THICKNESS             = 3
ROTATE_PML_ACTIVATE             = .false.
ROTATE_PML_ANGLE                = 30.



PML_PARAMETER_ADJUSTMENT        = .false.


STACEY_ABSORBING_CONDITIONS     = .true.


ADD_PERIODIC_CONDITIONS         = .false.
PERIODIC_HORIZ_DIST             = 4000.d0







nbmodels                        = 1






1 1 2600.d0 5800.d0 3500.0d0 0 0 10.d0 10.d0 0 0 0 0 0 0


TOMOGRAPHY_FILE                 = none


read_external_mesh              = .false.










mesh_file                       = ./DATA/mesh_file          
nodes_coords_file               = ./DATA/nodes_coords_file  
materials_file                  = ./DATA/materials_file     
free_surface_file               = ./DATA/free_surface_file  
axial_elements_file             = ./DATA/axial_elements_file   
absorbing_surface_file          = ./DATA/absorbing_surface_file   
acoustic_forcing_surface_file   = ./DATA/MSH/Surf_acforcing_Bottom_enforcing_mesh   
absorbing_cpml_file             = ./DATA/absorbing_cpml_file   
tangential_detection_curve_file = ./DATA/courbe_eros_nodes  








interfacesfile                  = interfaces.dat


xmin                            = 0.d0           
xmax                            = 480000.d0
nx                              = 40 


absorbbottom                    = .true.
absorbright                     = .true.
absorbtop                       = .true.
absorbleft                      = .true.


nbregions                       = 1
1 40  1 40 1






NSTEP_BETWEEN_OUTPUT_INFO       = 100


output_grid_Gnuplot             = .false.        
output_grid_ASCII               = .false.        



OUTPUT_ENERGY                   = .false.


NTSTEP_BETWEEN_OUTPUT_ENERGY    = 10



COMPUTE_INTEGRATED_ENERGY_FIELD = .false.









NSTEP_BETWEEN_OUTPUT_IMAGES     = 100


cutsnaps                        = 1.


output_color_image              = .true.
imagetype_JPEG                  = 2              
factor_subsample_image          = 1.0d0          
USE_CONSTANT_MAX_AMPLITUDE      = .false.        
CONSTANT_MAX_AMPLITUDE_TO_USE   = 1.17d4         
POWER_DISPLAY_COLOR             = 0.30d0         
DRAW_SOURCES_AND_RECEIVERS      = .true.         
DRAW_WATER_IN_BLUE              = .true.         
USE_SNAPSHOT_NUMBER_IN_FILENAME = .false.        


output_postscript_snapshot      = .false.
imagetype_postscript            = 1              
meshvect                        = .true.         
modelvect                       = .false.        
boundvect                       = .true.         
interpol                        = .true.         
pointsdisp                      = 6              
subsamp_postscript              = 1              
sizemax_arrows                  = 1.d0           
US_LETTER                       = .false.        


output_wavefield_dumps          = .false.        
imagetype_wavefield_dumps       = 1              
use_binary_for_wavefield_dumps  = .false.        




































NUMBER_OF_SIMULTANEOUS_RUNS     = 1










BROADCAST_SAME_MESH_AND_MODEL   = .true.

